NAD_B_1
prProtoss 06222411303D 1   1.00000     0.00000     0
Protoss beta proteinsplus
 70 74  0  0  0  0            999 V2000
   -7.1480   -1.3680   -2.9840 P   0  0  0  0  0  0  0  0  0  0  0  0
   -9.7680   -0.5180   -3.7770 P   0  0  0  0  0  0  0  0  0  0  0  0
   -6.6220   -2.4210   -3.9050 O   0  0  0  0  0  0  0  0  0  0  0  0
   -7.7470   -1.7920   -1.6940 O   0  5  0  0  0  0  0  0  0  0  0  0
  -10.2320    0.3680   -4.8730 O   0  0  0  0  0  0  0  0  0  0  0  0
  -10.2300   -1.9290   -3.7910 O   0  5  0  0  0  0  0  0  0  0  0  0
    2.6600   -0.3990   -0.6000 O   0  0  0  0  0  0  0  0  0  0  0  0
   -2.9440    3.8570   -3.0380 O   0  0  0  0  0  0  0  0  0  0  0  0
  -14.7540    2.8530   -2.5630 O   0  0  0  0  0  0  0  0  0  0  0  0
   -5.1150    2.8900   -4.2160 O   0  0  0  0  0  0  0  0  0  0  0  0
  -13.6910    0.6330   -1.5610 O   0  0  0  0  0  0  0  0  0  0  0  0
   -8.1790   -0.4500   -3.8040 O   0  0  0  0  0  0  0  0  0  0  0  0
   -5.9530   -0.3120   -2.7280 O   0  0  0  0  0  0  0  0  0  0  0  0
  -10.1710    0.0880   -2.3430 O   0  0  0  0  0  0  0  0  0  0  0  0
   -3.9740    1.3530   -1.2230 O   0  0  0  0  0  0  0  0  0  0  0  0
  -11.6180    3.0780   -0.9200 O   0  0  0  0  0  0  0  0  0  0  0  0
    1.5510    0.7190    1.0350 N   0  0  0  0  0  0  0  0  0  0  0  0
  -13.3190    9.5640   -0.6370 N   0  0  0  0  0  0  0  0  0  0  0  0
  -14.1280    8.0820    0.9600 N   0  0  0  0  0  0  0  0  0  0  0  0
  -13.9610    5.7400    0.7320 N   0  0  0  0  0  0  0  0  0  0  0  0
  -12.4430    7.0430   -2.1690 N   0  0  0  0  0  0  0  0  0  0  0  0
   -1.7490    0.8210   -1.7220 N   0  3  0  0  0  0  0  0  0  0  0  0
  -12.8540    5.0260   -1.3550 N   0  0  0  0  0  0  0  0  0  0  0  0
   -6.2030    0.8690   -1.9870 C   0  0  0  0  0  0  0  0  0  0  0  0
  -10.2550    1.4690   -2.0830 C   0  0  0  0  0  0  0  0  0  0  0  0
  -14.3400    6.8370    1.4050 C   0  0  0  0  0  0  0  0  0  0  0  0
  -12.3240    5.7350   -2.3790 C   0  0  0  0  0  0  0  0  0  0  0  0
   -1.9490   -0.3240   -2.4560 C   0  0  0  0  0  0  0  0  0  0  0  0
   -0.6040    0.9740   -0.9820 C   0  0  0  0  0  0  0  0  0  0  0  0
   -1.0160   -1.3260   -2.4580 C   0  0  0  0  0  0  0  0  0  0  0  0
    0.1480   -1.2030   -1.7240 C   0  0  0  0  0  0  0  0  0  0  0  0
    1.6080    0.1040   -0.1590 C   0  0  0  0  0  0  0  0  0  0  0  0
   -3.0110    2.4410   -3.0980 C   0  0  2  0  0  0  0  0  0  0  0  0
  -13.3620    2.8660   -2.4400 C   0  0  2  0  0  0  0  0  0  0  0  0
   -4.3990    1.9800   -3.4070 C   0  0  1  0  0  0  0  0  0  0  0  0
  -12.7750    1.4760   -2.2230 C   0  0  1  0  0  0  0  0  0  0  0  0
   -2.7570    1.8820   -1.7150 C   0  0  1  0  0  0  0  0  0  0  0  0
  -12.9200    3.5760   -1.1950 C   0  0  1  0  0  0  0  0  0  0  0  0
  -13.5060    8.2920   -0.2090 C   0  0  0  0  0  0  0  0  0  0  0  0
   -5.0450    1.8230   -2.0410 C   0  0  2  0  0  0  0  0  0  0  0  0
  -11.5630    1.7220   -1.3420 C   0  0  2  0  0  0  0  0  0  0  0  0
  -13.3370    5.9090   -0.4540 C   0  0  0  0  0  0  0  0  0  0  0  0
  -13.0790    7.1800   -0.9770 C   0  0  0  0  0  0  0  0  0  0  0  0
    0.3540   -0.0330   -0.9690 C   0  0  0  0  0  0  0  0  0  0  0  0
   -3.5581    4.1897   -2.3223 H   0  0  0  0  0  0  0  0  0  0  0  0
  -15.0850    3.7862   -2.7030 H   0  0  0  0  0  0  0  0  0  0  0  0
   -6.0322    2.5314   -4.3896 H   0  0  0  0  0  0  0  0  0  0  0  0
  -13.5378   -0.3136   -1.8446 H   0  0  0  0  0  0  0  0  0  0  0  0
    0.6883    1.1106    1.3551 H   0  0  0  0  0  0  0  0  0  0  0  0
    2.3713    0.7849    1.6032 H   0  0  0  0  0  0  0  0  0  0  0  0
  -12.8567    9.7360   -1.5069 H   0  0  0  0  0  0  0  0  0  0  0  0
  -13.6433   10.3307   -0.0830 H   0  0  0  0  0  0  0  0  0  0  0  0
   -6.3732    0.6216   -1.0331 H   0  0  0  0  0  0  0  0  0  0  0  0
   -7.0116    1.3212   -2.3635 H   0  0  0  0  0  0  0  0  0  0  0  0
  -10.2468    1.9787   -2.9433 H   0  0  0  0  0  0  0  0  0  0  0  0
   -9.4820    1.7568   -1.5176 H   0  0  0  0  0  0  0  0  0  0  0  0
  -14.8040    6.7190    2.2829 H   0  0  0  0  0  0  0  0  0  0  0  0
  -11.8986    5.3286   -3.1876 H   0  0  0  0  0  0  0  0  0  0  0  0
   -2.7854   -0.4262   -2.9945 H   0  0  0  0  0  0  0  0  0  0  0  0
   -0.4587    1.8096   -0.4522 H   0  0  0  0  0  0  0  0  0  0  0  0
   -1.1784   -2.1537   -2.9952 H   0  0  0  0  0  0  0  0  0  0  0  0
    0.8321   -1.9323   -1.7290 H   0  0  0  0  0  0  0  0  0  0  0  0
   -2.3551    2.0772   -3.7594 H   0  0  0  0  0  0  0  0  0  0  0  0
  -12.9491    3.2925   -3.2447 H   0  0  0  0  0  0  0  0  0  0  0  0
   -4.3606    1.0899   -3.8612 H   0  0  0  0  0  0  0  0  0  0  0  0
  -12.4972    1.0738   -3.0954 H   0  0  0  0  0  0  0  0  0  0  0  0
   -2.4526    2.6203   -1.1131 H   0  0  0  0  0  0  0  0  0  0  0  0
  -13.5349    3.3476   -0.4402 H   0  0  0  0  0  0  0  0  0  0  0  0
   -5.3415    2.7196   -1.7120 H   0  0  0  0  0  0  0  0  0  0  0  0
  -11.6099    1.1247   -0.5413 H   0  0  0  0  0  0  0  0  0  0  0  0
  1  3  2  0  0  0  0
  1  4  1  0  0  0  0
  1 12  1  0  0  0  0
  1 13  1  0  0  0  0
  2  5  2  0  0  0  0
  2  6  1  0  0  0  0
  2 12  1  0  0  0  0
  2 14  1  0  0  0  0
  7 32  2  0  0  0  0
  8 33  1  0  0  0  0
  9 34  1  0  0  0  0
 10 35  1  0  0  0  0
 11 36  1  0  0  0  0
 13 24  1  0  0  0  0
 14 25  1  0  0  0  0
 15 37  1  0  0  0  0
 15 40  1  0  0  0  0
 16 38  1  0  0  0  0
 16 41  1  0  0  0  0
 17 32  1  0  0  0  0
 18 39  1  0  0  0  0
 19 26  1  0  0  0  0
 19 39  2  0  0  0  0
 20 26  2  0  0  0  0
 20 42  1  0  0  0  0
 21 27  2  0  0  0  0
 21 43  1  0  0  0  0
 22 28  2  0  0  0  0
 22 29  1  0  0  0  0
 22 37  1  0  0  0  0
 23 27  1  0  0  0  0
 23 38  1  0  0  0  0
 23 42  1  0  0  0  0
 24 40  1  0  0  0  0
 25 41  1  0  0  0  0
 28 30  1  0  0  0  0
 29 44  2  0  0  0  0
 30 31  2  0  0  0  0
 31 44  1  0  0  0  0
 32 44  1  0  0  0  0
 33 35  1  0  0  0  0
 33 37  1  0  0  0  0
 34 36  1  0  0  0  0
 34 38  1  0  0  0  0
 35 40  1  0  0  0  0
 36 41  1  0  0  0  0
 39 43  1  0  0  0  0
 42 43  2  0  0  0  0
 41 70  1  0  0  0  0
 40 69  1  0  0  0  0
  8 45  1  0  0  0  0
  9 46  1  0  0  0  0
 10 47  1  0  0  0  0
 11 48  1  0  0  0  0
 17 49  1  0  0  0  0
 17 50  1  0  0  0  0
 18 51  1  0  0  0  0
 18 52  1  0  0  0  0
 24 53  1  0  0  0  0
 24 54  1  0  0  0  0
 25 55  1  0  0  0  0
 25 56  1  0  0  0  0
 26 57  1  0  0  0  0
 27 58  1  0  0  0  0
 28 59  1  0  0  0  0
 29 60  1  0  0  0  0
 30 61  1  0  0  0  0
 31 62  1  0  0  0  0
 33 63  1  0  0  0  0
 34 64  1  0  0  0  0
 35 65  1  0  0  0  0
 36 66  1  0  0  0  0
 37 67  1  0  0  0  0
 38 68  1  0  0  0  0
M  CHG  3   4  -1   6  -1  22   1
M  END
$$$$
