
     RDKit          3D

 41 41  0  0  0  0  0  0  0  0999 V2000
    4.9060    0.2194    2.6047 C   0  0  0  0  0  0  0  0  0  0  0  0
    4.2783    0.5438    1.2681 C   0  0  0  0  0  0  0  0  0  0  0  0
    3.1425   -0.3263    0.9418 C   0  0  0  0  0  0  0  0  0  0  0  0
    2.0586   -0.1462    1.4166 O   0  0  0  0  0  0  0  0  0  0  0  0
    3.3539   -1.4560   -0.0008 C   0  0  0  0  0  0  0  0  0  0  0  0
    2.0231   -2.1443   -0.1558 C   0  0  0  0  0  0  0  0  0  0  0  0
    1.0256   -1.1671   -0.7134 C   0  0  0  0  0  0  0  0  0  0  0  0
    1.4681   -0.0371   -0.9412 O   0  0  0  0  0  0  0  0  0  0  0  0
   -0.3214   -1.5907   -0.9372 C   0  0  0  0  0  0  0  0  0  0  0  0
   -1.2695   -0.8349   -1.4195 C   0  0  0  0  0  0  0  0  0  0  0  0
   -1.1172    0.5630   -1.8065 C   0  0  0  0  0  0  0  0  0  0  0  0
   -2.0575    1.4195   -0.9519 C   0  0  0  0  0  0  0  0  0  0  0  0
   -3.4644    0.9934   -1.1697 C   0  0  0  0  0  0  0  0  0  0  0  0
   -3.8007   -0.2319   -0.3114 C   0  0  0  0  0  0  0  0  0  0  0  0
   -3.6023    0.1120    1.1364 C   0  0  0  0  0  0  0  0  0  0  0  0
   -2.8822    1.4248    1.3246 C   0  0  0  0  0  0  0  0  0  0  0  0
   -1.6212    1.4335    0.4905 C   0  0  0  0  0  0  0  0  0  0  0  0
    5.5457    1.0404    2.9913 H   0  0  0  0  0  0  0  0  0  0  0  0
    5.6061   -0.6341    2.4529 H   0  0  0  0  0  0  0  0  0  0  0  0
    4.1635   -0.0324    3.3700 H   0  0  0  0  0  0  0  0  0  0  0  0
    5.0793    0.3868    0.5139 H   0  0  0  0  0  0  0  0  0  0  0  0
    3.9531    1.5958    1.2580 H   0  0  0  0  0  0  0  0  0  0  0  0
    3.6971   -1.0394   -0.9857 H   0  0  0  0  0  0  0  0  0  0  0  0
    4.1375   -2.1161    0.4127 H   0  0  0  0  0  0  0  0  0  0  0  0
    1.6180   -2.5195    0.7873 H   0  0  0  0  0  0  0  0  0  0  0  0
    2.0747   -2.9540   -0.9357 H   0  0  0  0  0  0  0  0  0  0  0  0
   -0.6022   -2.6629   -0.6783 H   0  0  0  0  0  0  0  0  0  0  0  0
   -2.2575   -1.3462   -1.5112 H   0  0  0  0  0  0  0  0  0  0  0  0
   -1.1994    0.8297   -2.8453 H   0  0  0  0  0  0  0  0  0  0  0  0
   -0.0792    0.9462   -1.4624 H   0  0  0  0  0  0  0  0  0  0  0  0
   -1.9831    2.4772   -1.3667 H   0  0  0  0  0  0  0  0  0  0  0  0
   -3.7336    0.7260   -2.1933 H   0  0  0  0  0  0  0  0  0  0  0  0
   -4.2027    1.7774   -0.8408 H   0  0  0  0  0  0  0  0  0  0  0  0
   -4.8992   -0.4115   -0.5112 H   0  0  0  0  0  0  0  0  0  0  0  0
   -3.2238   -1.0994   -0.6466 H   0  0  0  0  0  0  0  0  0  0  0  0
   -3.0728   -0.7193    1.6545 H   0  0  0  0  0  0  0  0  0  0  0  0
   -4.5930    0.2176    1.6227 H   0  0  0  0  0  0  0  0  0  0  0  0
   -2.6348    1.5861    2.4122 H   0  0  0  0  0  0  0  0  0  0  0  0
   -3.5023    2.2745    0.9862 H   0  0  0  0  0  0  0  0  0  0  0  0
   -0.9807    0.5573    0.6921 H   0  0  0  0  0  0  0  0  0  0  0  0
   -1.0304    2.3449    0.6853 H   0  0  0  0  0  0  0  0  0  0  0  0
  1  2  1  0
  2  3  1  0
  3  4  2  0
  3  5  1  0
  5  6  1  0
  6  7  1  0
  7  8  2  0
  7  9  1  0
  9 10  2  3
 10 11  1  0
 11 12  1  0
 12 13  1  0
 13 14  1  0
 14 15  1  0
 15 16  1  0
 16 17  1  0
 17 12  1  0
  1 18  1  0
  1 19  1  0
  1 20  1  0
  2 21  1  0
  2 22  1  0
  5 23  1  0
  5 24  1  0
  6 25  1  0
  6 26  1  0
  9 27  1  0
 10 28  1  0
 11 29  1  0
 11 30  1  0
 12 31  1  0
 13 32  1  0
 13 33  1  0
 14 34  1  0
 14 35  1  0
 15 36  1  0
 15 37  1  0
 16 38  1  0
 16 39  1  0
 17 40  1  0
 17 41  1  0
M  END
$$$$

     RDKit          3D

 41 41  0  0  0  0  0  0  0  0999 V2000
    3.6415    0.0078    2.9643 C   0  0  0  0  0  0  0  0  0  0  0  0
    3.8520   -0.1583    1.5148 C   0  0  0  0  0  0  0  0  0  0  0  0
    3.7020   -1.3819    0.9774 C   0  0  0  0  0  0  0  0  0  0  0  0
    3.3571   -2.4620    1.7694 O   0  0  0  0  0  0  0  0  0  0  0  0
    3.9046   -1.5875   -0.4712 C   0  0  0  0  0  0  0  0  0  0  0  0
    2.6397   -2.1124   -1.0882 C   0  0  0  0  0  0  0  0  0  0  0  0
    1.4666   -1.2280   -0.9586 C   0  0  0  0  0  0  0  0  0  0  0  0
    1.6276   -0.1463   -0.3744 O   0  0  0  0  0  0  0  0  0  0  0  0
    0.1856   -1.6138   -1.4954 C   0  0  0  0  0  0  0  0  0  0  0  0
   -0.8712   -0.8870   -1.4189 C   0  0  0  0  0  0  0  0  0  0  0  0
   -1.0933    0.4334   -0.8224 C   0  0  0  0  0  0  0  0  0  0  0  0
   -2.1574    0.1936    0.2699 C   0  0  0  0  0  0  0  0  0  0  0  0
   -3.4213   -0.3550   -0.3495 C   0  0  0  0  0  0  0  0  0  0  0  0
   -4.1900    0.8289   -0.8999 C   0  0  0  0  0  0  0  0  0  0  0  0
   -4.7505    1.5709    0.3134 C   0  0  0  0  0  0  0  0  0  0  0  0
   -3.7917    1.5849    1.4571 C   0  0  0  0  0  0  0  0  0  0  0  0
   -2.3859    1.5419    0.9133 C   0  0  0  0  0  0  0  0  0  0  0  0
    3.0612    0.9364    3.1671 H   0  0  0  0  0  0  0  0  0  0  0  0
    4.6388    0.0197    3.4468 H   0  0  0  0  0  0  0  0  0  0  0  0
    3.0876   -0.8517    3.3798 H   0  0  0  0  0  0  0  0  0  0  0  0
    4.1182    0.6659    0.8925 H   0  0  0  0  0  0  0  0  0  0  0  0
    3.8915   -2.6031    2.6113 H   0  0  0  0  0  0  0  0  0  0  0  0
    4.7349   -2.3037   -0.6546 H   0  0  0  0  0  0  0  0  0  0  0  0
    4.1143   -0.6133   -0.9915 H   0  0  0  0  0  0  0  0  0  0  0  0
    2.4583   -3.1132   -0.5934 H   0  0  0  0  0  0  0  0  0  0  0  0
    2.8259   -2.3983   -2.1623 H   0  0  0  0  0  0  0  0  0  0  0  0
    0.0839   -2.5985   -2.0149 H   0  0  0  0  0  0  0  0  0  0  0  0
   -1.7996   -1.3145   -1.8810 H   0  0  0  0  0  0  0  0  0  0  0  0
   -0.1317    0.7521   -0.3031 H   0  0  0  0  0  0  0  0  0  0  0  0
   -1.4319    1.2359   -1.4551 H   0  0  0  0  0  0  0  0  0  0  0  0
   -1.6959   -0.4860    1.0076 H   0  0  0  0  0  0  0  0  0  0  0  0
   -4.0368   -0.7727    0.4713 H   0  0  0  0  0  0  0  0  0  0  0  0
   -3.2342   -1.1337   -1.0857 H   0  0  0  0  0  0  0  0  0  0  0  0
   -3.5307    1.4584   -1.5038 H   0  0  0  0  0  0  0  0  0  0  0  0
   -5.0498    0.4985   -1.4877 H   0  0  0  0  0  0  0  0  0  0  0  0
   -5.6392    0.9685    0.6373 H   0  0  0  0  0  0  0  0  0  0  0  0
   -5.0126    2.5823   -0.0125 H   0  0  0  0  0  0  0  0  0  0  0  0
   -3.8988    0.6879    2.1231 H   0  0  0  0  0  0  0  0  0  0  0  0
   -3.8741    2.4595    2.1122 H   0  0  0  0  0  0  0  0  0  0  0  0
   -1.6919    1.6351    1.7534 H   0  0  0  0  0  0  0  0  0  0  0  0
   -2.1755    2.3813    0.2209 H   0  0  0  0  0  0  0  0  0  0  0  0
  1  2  1  0
  2  3  2  3
  3  4  1  0
  3  5  1  0
  5  6  1  0
  6  7  1  0
  7  8  2  0
  7  9  1  0
  9 10  2  3
 10 11  1  0
 11 12  1  0
 12 13  1  0
 13 14  1  0
 14 15  1  0
 15 16  1  0
 16 17  1  0
 17 12  1  0
  1 18  1  0
  1 19  1  0
  1 20  1  0
  2 21  1  0
  4 22  1  0
  5 23  1  0
  5 24  1  0
  6 25  1  0
  6 26  1  0
  9 27  1  0
 10 28  1  0
 11 29  1  0
 11 30  1  0
 12 31  1  0
 13 32  1  0
 13 33  1  0
 14 34  1  0
 14 35  1  0
 15 36  1  0
 15 37  1  0
 16 38  1  0
 16 39  1  0
 17 40  1  0
 17 41  1  0
M  END
$$$$

     RDKit          3D

 41 41  0  0  0  0  0  0  0  0999 V2000
    5.9830   -4.2723   -1.2181 C   0  0  0  0  0  0  0  0  0  0  0  0
    5.0013   -3.8363   -0.1787 C   0  0  0  0  0  0  0  0  0  0  0  0
    4.3347   -2.5829   -0.5739 C   0  0  0  0  0  0  0  0  0  0  0  0
    4.6179   -2.0613   -1.6221 O   0  0  0  0  0  0  0  0  0  0  0  0
    3.3083   -1.9582    0.3230 C   0  0  0  0  0  0  0  0  0  0  0  0
    1.9843   -2.3602   -0.2059 C   0  0  0  0  0  0  0  0  0  0  0  0
    1.1117   -1.4198   -0.6097 C   0  0  0  0  0  0  0  0  0  0  0  0
    1.5223   -0.1239   -0.4997 O   0  0  0  0  0  0  0  0  0  0  0  0
   -0.1518   -1.8289   -1.1121 C   0  0  0  0  0  0  0  0  0  0  0  0
   -1.1134   -1.0826   -1.5455 C   0  0  0  0  0  0  0  0  0  0  0  0
   -1.0810    0.3674   -1.6035 C   0  0  0  0  0  0  0  0  0  0  0  0
   -2.1879    1.0037   -0.7398 C   0  0  0  0  0  0  0  0  0  0  0  0
   -3.4895    0.5115   -1.2746 C   0  0  0  0  0  0  0  0  0  0  0  0
   -4.6601    0.8122   -0.3782 C   0  0  0  0  0  0  0  0  0  0  0  0
   -4.2683    1.4878    0.9012 C   0  0  0  0  0  0  0  0  0  0  0  0
   -3.0954    0.8513    1.5899 C   0  0  0  0  0  0  0  0  0  0  0  0
   -1.9232    0.6158    0.6756 C   0  0  0  0  0  0  0  0  0  0  0  0
    6.2594   -5.3424   -1.0324 H   0  0  0  0  0  0  0  0  0  0  0  0
    5.5410   -4.2505   -2.2390 H   0  0  0  0  0  0  0  0  0  0  0  0
    6.9166   -3.6804   -1.1459 H   0  0  0  0  0  0  0  0  0  0  0  0
    5.5444   -3.6831    0.7716 H   0  0  0  0  0  0  0  0  0  0  0  0
    4.2726   -4.6703   -0.0108 H   0  0  0  0  0  0  0  0  0  0  0  0
    3.4181   -2.3388    1.3620 H   0  0  0  0  0  0  0  0  0  0  0  0
    3.3848   -0.8621    0.3090 H   0  0  0  0  0  0  0  0  0  0  0  0
    1.7117   -3.4108   -0.2709 H   0  0  0  0  0  0  0  0  0  0  0  0
    2.3031    0.2861   -0.9828 H   0  0  0  0  0  0  0  0  0  0  0  0
   -0.3633   -2.9235   -1.1467 H   0  0  0  0  0  0  0  0  0  0  0  0
   -2.0595   -1.5380   -1.9129 H   0  0  0  0  0  0  0  0  0  0  0  0
   -0.1578    0.8872   -1.4332 H   0  0  0  0  0  0  0  0  0  0  0  0
   -1.3874    0.6291   -2.6759 H   0  0  0  0  0  0  0  0  0  0  0  0
   -2.0686    2.1106   -0.8861 H   0  0  0  0  0  0  0  0  0  0  0  0
   -3.4217   -0.6109   -1.3335 H   0  0  0  0  0  0  0  0  0  0  0  0
   -3.6162    0.8638   -2.3099 H   0  0  0  0  0  0  0  0  0  0  0  0
   -5.3227    1.5163   -0.9350 H   0  0  0  0  0  0  0  0  0  0  0  0
   -5.2552   -0.0916   -0.1226 H   0  0  0  0  0  0  0  0  0  0  0  0
   -4.0738    2.5862    0.7640 H   0  0  0  0  0  0  0  0  0  0  0  0
   -5.1360    1.4244    1.5907 H   0  0  0  0  0  0  0  0  0  0  0  0
   -2.8245    1.5222    2.4432 H   0  0  0  0  0  0  0  0  0  0  0  0
   -3.3756   -0.1222    2.0439 H   0  0  0  0  0  0  0  0  0  0  0  0
   -1.5405   -0.4302    0.7318 H   0  0  0  0  0  0  0  0  0  0  0  0
   -1.0767    1.2568    1.0419 H   0  0  0  0  0  0  0  0  0  0  0  0
  1  2  1  0
  2  3  1  0
  3  4  2  0
  3  5  1  0
  5  6  1  0
  6  7  2  3
  7  8  1  0
  7  9  1  0
  9 10  2  3
 10 11  1  0
 11 12  1  0
 12 13  1  0
 13 14  1  0
 14 15  1  0
 15 16  1  0
 16 17  1  0
 17 12  1  0
  1 18  1  0
  1 19  1  0
  1 20  1  0
  2 21  1  0
  2 22  1  0
  5 23  1  0
  5 24  1  0
  6 25  1  0
  8 26  1  0
  9 27  1  0
 10 28  1  0
 11 29  1  0
 11 30  1  0
 12 31  1  0
 13 32  1  0
 13 33  1  0
 14 34  1  0
 14 35  1  0
 15 36  1  0
 15 37  1  0
 16 38  1  0
 16 39  1  0
 17 40  1  0
 17 41  1  0
M  END
$$$$

     RDKit          3D

 41 41  0  0  0  0  0  0  0  0999 V2000
    4.8150   -3.6202   -3.7010 C   0  0  0  0  0  0  0  0  0  0  0  0
    4.9385   -2.9960   -2.3144 C   0  0  0  0  0  0  0  0  0  0  0  0
    4.1724   -3.7540   -1.3150 C   0  0  0  0  0  0  0  0  0  0  0  0
    4.5112   -5.0877   -1.1158 O   0  0  0  0  0  0  0  0  0  0  0  0
    3.2100   -3.2295   -0.6269 C   0  0  0  0  0  0  0  0  0  0  0  0
    2.7108   -1.8594   -0.6914 C   0  0  0  0  0  0  0  0  0  0  0  0
    1.2638   -1.8081   -1.0880 C   0  0  0  0  0  0  0  0  0  0  0  0
    0.6502   -2.8997   -1.3031 O   0  0  0  0  0  0  0  0  0  0  0  0
    0.6224   -0.5220   -1.2103 C   0  0  0  0  0  0  0  0  0  0  0  0
   -0.6529   -0.4493   -1.5537 C   0  0  0  0  0  0  0  0  0  0  0  0
   -1.2701    0.8951   -1.6670 C   0  0  0  0  0  0  0  0  0  0  0  0
   -2.3876    1.0241   -0.7094 C   0  0  0  0  0  0  0  0  0  0  0  0
   -3.4509   -0.0021   -0.9708 C   0  0  0  0  0  0  0  0  0  0  0  0
   -4.7478    0.5335   -0.3767 C   0  0  0  0  0  0  0  0  0  0  0  0
   -4.4106    1.4149    0.7793 C   0  0  0  0  0  0  0  0  0  0  0  0
   -3.2148    0.9562    1.5775 C   0  0  0  0  0  0  0  0  0  0  0  0
   -1.9616    0.8449    0.7375 C   0  0  0  0  0  0  0  0  0  0  0  0
    3.7594   -3.7379   -3.9425 H   0  0  0  0  0  0  0  0  0  0  0  0
    5.3926   -2.9966   -4.3815 H   0  0  0  0  0  0  0  0  0  0  0  0
    5.2789   -4.6335   -3.6239 H   0  0  0  0  0  0  0  0  0  0  0  0
    4.6698   -1.9492   -2.4053 H   0  0  0  0  0  0  0  0  0  0  0  0
    6.0459   -3.0114   -2.0703 H   0  0  0  0  0  0  0  0  0  0  0  0
    3.9956   -5.8647   -1.4960 H   0  0  0  0  0  0  0  0  0  0  0  0
    2.6890   -3.8812    0.1052 H   0  0  0  0  0  0  0  0  0  0  0  0
    3.2622   -1.1501   -1.3003 H   0  0  0  0  0  0  0  0  0  0  0  0
    2.7214   -1.4331    0.3504 H   0  0  0  0  0  0  0  0  0  0  0  0
    1.1997    0.3653   -1.0179 H   0  0  0  0  0  0  0  0  0  0  0  0
   -1.2017   -1.3465   -1.7310 H   0  0  0  0  0  0  0  0  0  0  0  0
   -0.4536    1.6163   -1.4001 H   0  0  0  0  0  0  0  0  0  0  0  0
   -1.5493    1.1256   -2.7208 H   0  0  0  0  0  0  0  0  0  0  0  0
   -2.7951    2.0673   -0.7516 H   0  0  0  0  0  0  0  0  0  0  0  0
   -3.1283   -0.9261   -0.4226 H   0  0  0  0  0  0  0  0  0  0  0  0
   -3.5736   -0.1780   -2.0344 H   0  0  0  0  0  0  0  0  0  0  0  0
   -5.3979   -0.3268   -0.1222 H   0  0  0  0  0  0  0  0  0  0  0  0
   -5.2275    1.1337   -1.1889 H   0  0  0  0  0  0  0  0  0  0  0  0
   -5.2807    1.3508    1.4890 H   0  0  0  0  0  0  0  0  0  0  0  0
   -4.3500    2.4885    0.4904 H   0  0  0  0  0  0  0  0  0  0  0  0
   -3.0306    1.7593    2.3412 H   0  0  0  0  0  0  0  0  0  0  0  0
   -3.4974    0.0024    2.0612 H   0  0  0  0  0  0  0  0  0  0  0  0
   -1.1788    1.5574    1.0171 H   0  0  0  0  0  0  0  0  0  0  0  0
   -1.6068   -0.2213    0.8581 H   0  0  0  0  0  0  0  0  0  0  0  0
  1  2  1  0
  2  3  1  0
  3  4  1  0
  3  5  2  3
  5  6  1  0
  6  7  1  0
  7  8  2  0
  7  9  1  0
  9 10  2  3
 10 11  1  0
 11 12  1  0
 12 13  1  0
 13 14  1  0
 14 15  1  0
 15 16  1  0
 16 17  1  0
 17 12  1  0
  1 18  1  0
  1 19  1  0
  1 20  1  0
  2 21  1  0
  2 22  1  0
  4 23  1  0
  5 24  1  0
  6 25  1  0
  6 26  1  0
  9 27  1  0
 10 28  1  0
 11 29  1  0
 11 30  1  0
 12 31  1  0
 13 32  1  0
 13 33  1  0
 14 34  1  0
 14 35  1  0
 15 36  1  0
 15 37  1  0
 16 38  1  0
 16 39  1  0
 17 40  1  0
 17 41  1  0
M  END
$$$$
