
     RDKit          3D

 41 41  0  0  0  0  0  0  0  0999 V2000
    5.3030    0.1902    2.6156 C   0  0  0  0  0  0  0  0  0  0  0  0
    4.5728    0.6580    1.3700 C   0  0  0  0  0  0  0  0  0  0  0  0
    3.4376   -0.2409    1.0342 C   0  0  0  0  0  0  0  0  0  0  0  0
    2.3873   -0.1615    1.6218 O   0  0  0  0  0  0  0  0  0  0  0  0
    3.6450   -1.2299   -0.0413 C   0  0  0  0  0  0  0  0  0  0  0  0
    2.4657   -2.0851   -0.3445 C   0  0  0  0  0  0  0  0  0  0  0  0
    1.3128   -1.2140   -0.7842 C   0  0  0  0  0  0  0  0  0  0  0  0
    1.5015    0.0157   -0.8399 O   0  0  0  0  0  0  0  0  0  0  0  0
    0.0374   -1.7931   -1.1271 C   0  0  0  0  0  0  0  0  0  0  0  0
   -0.9956   -1.1334   -1.5144 C   0  0  0  0  0  0  0  0  0  0  0  0
   -1.1510    0.2765   -1.7015 C   0  0  0  0  0  0  0  0  0  0  0  0
   -2.2159    0.9141   -0.8279 C   0  0  0  0  0  0  0  0  0  0  0  0
   -3.5789    0.3137   -1.0890 C   0  0  0  0  0  0  0  0  0  0  0  0
   -4.5851    1.2944   -0.4815 C   0  0  0  0  0  0  0  0  0  0  0  0
   -4.3704    1.3282    1.0044 C   0  0  0  0  0  0  0  0  0  0  0  0
   -3.1569    0.6110    1.4754 C   0  0  0  0  0  0  0  0  0  0  0  0
   -1.9349    0.8119    0.6290 C   0  0  0  0  0  0  0  0  0  0  0  0
    5.9237    0.9969    3.0280 H   0  0  0  0  0  0  0  0  0  0  0  0
    4.5593   -0.2073    3.3302 H   0  0  0  0  0  0  0  0  0  0  0  0
    5.9241   -0.6882    2.3114 H   0  0  0  0  0  0  0  0  0  0  0  0
    4.1628    1.6588    1.6017 H   0  0  0  0  0  0  0  0  0  0  0  0
    5.2876    0.7856    0.5259 H   0  0  0  0  0  0  0  0  0  0  0  0
    3.9508   -0.7179   -0.9759 H   0  0  0  0  0  0  0  0  0  0  0  0
    4.4798   -1.8938    0.2785 H   0  0  0  0  0  0  0  0  0  0  0  0
    2.1844   -2.7036    0.5224 H   0  0  0  0  0  0  0  0  0  0  0  0
    2.7529   -2.7757   -1.1642 H   0  0  0  0  0  0  0  0  0  0  0  0
   -0.0023   -2.9093   -1.0307 H   0  0  0  0  0  0  0  0  0  0  0  0
   -1.8960   -1.7690   -1.7332 H   0  0  0  0  0  0  0  0  0  0  0  0
   -1.5627    0.4313   -2.7616 H   0  0  0  0  0  0  0  0  0  0  0  0
   -0.2327    0.8641   -1.7086 H   0  0  0  0  0  0  0  0  0  0  0  0
   -2.2803    1.9833   -1.1375 H   0  0  0  0  0  0  0  0  0  0  0  0
   -3.6266   -0.6334   -0.4962 H   0  0  0  0  0  0  0  0  0  0  0  0
   -3.8057    0.1700   -2.1477 H   0  0  0  0  0  0  0  0  0  0  0  0
   -4.2926    2.2922   -0.8759 H   0  0  0  0  0  0  0  0  0  0  0  0
   -5.6081    1.0741   -0.7898 H   0  0  0  0  0  0  0  0  0  0  0  0
   -5.2665    0.8114    1.4603 H   0  0  0  0  0  0  0  0  0  0  0  0
   -4.4292    2.3698    1.4121 H   0  0  0  0  0  0  0  0  0  0  0  0
   -2.9088    1.0165    2.5013 H   0  0  0  0  0  0  0  0  0  0  0  0
   -3.3396   -0.4777    1.6524 H   0  0  0  0  0  0  0  0  0  0  0  0
   -1.4379    1.7625    0.9479 H   0  0  0  0  0  0  0  0  0  0  0  0
   -1.2110    0.0037    0.8872 H   0  0  0  0  0  0  0  0  0  0  0  0
  1  2  1  0
  2  3  1  0
  3  4  2  0
  3  5  1  0
  5  6  1  0
  6  7  1  0
  7  8  2  0
  7  9  1  0
  9 10  2  3
 10 11  1  0
 11 12  1  0
 12 13  1  0
 13 14  1  0
 14 15  1  0
 15 16  1  0
 16 17  1  0
 17 12  1  0
  1 18  1  0
  1 19  1  0
  1 20  1  0
  2 21  1  0
  2 22  1  0
  5 23  1  0
  5 24  1  0
  6 25  1  0
  6 26  1  0
  9 27  1  0
 10 28  1  0
 11 29  1  0
 11 30  1  0
 12 31  1  0
 13 32  1  0
 13 33  1  0
 14 34  1  0
 14 35  1  0
 15 36  1  0
 15 37  1  0
 16 38  1  0
 16 39  1  0
 17 40  1  0
 17 41  1  0
M  END
$$$$
